Version 4
SHEET 1 880 680
WIRE -960 112 -992 112
WIRE -1056 128 -1152 128
WIRE -1152 160 -1152 128
WIRE -1056 192 -1056 160
WIRE -1152 288 -1152 240
FLAG -1152 288 0
FLAG -960 112 Vpwm
IOPIN -960 112 Out
FLAG -1056 192 0
SYMBOL Misc\\signal -1152 144 R0
WINDOW 123 0 0 Left 0
WINDOW 39 0 0 Left 0
WINDOW 3 31 99 Left 2
SYMATTR Value PULSE(0 1 0 {0.999/PWM_f} {0.001/PWM_f} 0 {1/PWM_f})
SYMATTR InstName V2
SYMBOL Digital\\schmitt -1056 64 R0
WINDOW 3 40 107 Left 2
SYMATTR Value Vt={{100-DutyCycle}/100} Vh=0 Vhigh={PWM_V} Vlow=0 Trise=0.00000000000000001
SYMATTR InstName A1
TEXT -1528 -144 Left 5 ;PWM Signal Generator Circuit
TEXT -1528 -88 Left 3 ;J.Kincell June 2021\nCurrentSauce.co.uk
